<?xml version="1.0" encoding="UTF-8"?>

<!-- generated on 2026-03-14 04:57:52 by Eclipse SUMO duarouter Version 1.15.0
<configuration xmlns:xsi="http://www.w3.org/2001/XMLSchema-instance" xsi:noNamespaceSchemaLocation="http://sumo.dlr.de/xsd/duarouterConfiguration.xsd">

    <input>
        <net-file value="maps/osm/tirupati/map.net.xml"/>
        <route-files value="maps/osm/tirupati/trips.xml"/>
    </input>

    <output>
        <output-file value="maps/osm/tirupati/map.rou.xml"/>
    </output>

    <report>
        <no-warnings value="true"/>
        <ignore-errors value="true"/>
    </report>

    <random_number>
        <seed value="42"/>
    </random_number>

</configuration>
-->

<routes xmlns:xsi="http://www.w3.org/2001/XMLSchema-instance" xsi:noNamespaceSchemaLocation="http://sumo.dlr.de/xsd/routes_file.xsd">
    <vType id="passenger" vClass="passenger"/>
    <vehicle id="0" type="passenger" depart="0.00">
        <route edges="363114649#10 363114649#11 363114649#12 363114649#13 363114649#14 363114649#15 363114649#16 363114649#17 363114649#18 363114649#21 363114649#22 363114649#23 363114649#24 363114649#25 363114649#26 363114649#27 1318605636#0 1318605636#1 1318605636#2 1318605636#3 1318605636#6 365069967#5 365069967#6 365069967#1 1320330620#0 1320330620#0-AddedOffRampEdge 1320330625 30434507#1-AddedOnRampEdge 30434507#1 365069974#5 365069976 365069973#2 580225755#0 178113868#0 178113868#1 178113868#2 178113868#3 178113868#4 178113868#5 178113868#6 178113868#7 178113868#8 178113868#9 178113868#10 178113868#11 178113868#12 700512705#0 700512705#1 700512705#3 700512705#4 -237093131#0"/>
    </vehicle>
    <vehicle id="1" type="passenger" depart="12.00">
        <route edges="-531213188#3 -996575374 580217234#1 580217234#2 580217234#3 580217234#4 580217234#5 580217234#5-AddedOffRampEdge 580217241 368748081#2 368748081#3 368748081#4 368748081#5 368748081#6 368748081#7 368748081#8 368748081#9 368748081#11 368748081#13 368748081#14 368748081#15 368748081#16 823831691#1 823831691#2 823831691#3 823831691#4 823831691#5 823831691#6 530524776#0 530524776#1 530524776#2 -530524777#11 -530524777#10 -530524777#9 530524797#0 530524797#1 -530524814#5 -530524823#4 -530524823#2 -530524823#1 -530524823#0 -530524820#1"/>
    </vehicle>
    <vehicle id="2" type="passenger" depart="24.00">
        <route edges="530524800#0 -530524799#3 -823831684#1 531179075#0 531179075#1 823831665 818309324 583487073#17 583487073#17-AddedOffRampEdge 816125618 178113845#0 178113845#1 178113845#2 816125622#2 816125622#3 816125622#5 816125622#6 816125622#7 816125622#8 816125622#9 816125622#10 816125622#12 816125622#13 816125622#14 816125622#15 815138888#0 815138888#2 815138888#3 815138888#4 815138888#5 580217235#0 580217235#2 580217235#3 580217235#4 580217235#5 580217235#6 580217235#7 1442121431#1 178113862#0 178113862#1 178113862#2 237090875#1 237090875#2 237090875#4 237090875#5 700512705#0 700512705#1 700512705#3 700512705#4 700512705#5 700512705#6 700512705#7 700512705#9 700512705#10 700512705#11 700512705#13 700512705#14 363114639#0 363114639#1 363114639#2 363114639#3 363114639#5 363114639#6 363114639#7 363114639#8 363114639#9 363114639#10 363114639#11 363114639#12 363114639#13 363114639#14 363114639#15 365049517#3 365049517#4 365049517#5 1209736900#0 1209736900#1 1209736900#2 1209736900#3 1209736900#4 1209736900#5 1209736900#6 1209736900#7 1209736900#8 1209736900#9 1209736900#10 585666257#0 316115161#0 316115161#1 316115161#2 498700048#0 498700049#0 498700049#1 498700049#2 498700050#0 498700050#1 498700050#2 -498700911 498700490#1 498700491#0 498700491#1 498700903#0"/>
    </vehicle>
    <vehicle id="3" type="passenger" depart="36.00">
        <route edges="815396090#2 815396090#3 815396090#4 815396090#5 815396090#6 815396090#7 -816441780#0 -816441783#2 -816441783#1 -816441783#0 -366072546#22 -366072546#17 -366072546#14 -366072546#13 -366072546#12 -366072546#11 -366072546#8 -366072546#7 -366072546#6 -366072546#5 -366072546#4 -366072546#3 -366072546#2 -366072546#1 -818417939 366063811#2 366063811#3 366063811#4 366063811#5 366063811#6 366063810#1 366063810#3 1318612974#0 1318612974#1 1318612974#2 1318612974#5 1318612974#6 1318612974#7 1318612974#8 1318612974#9 1318612974#10 1318605641#0 1318605641#1 1318605641#2 1318605641#3 1318605641#4 1318605641#6 1318605641#7 1318605641#8 1318605641#10 1318605641#11 1318605641#12 1318605641#15 1318605641#15-AddedOffRampEdge 1318612977 815138878#3-AddedOnRampEdge 815138878#3 815138878#4 815138878#5 815138878#6 815138878#8 815138878#9 815138878#10 815138878#11 815138878#12 815138878#13 815138878#14 815138878#15 580217235#0 580217235#2 580217235#3 580217235#4 580217235#5 580217235#6 580217235#7 1442121431#1 178113862#0 178113862#1 178113862#2 178113840#0 178113840#1 178113840#2 178113840#3 178113840#4 178113840#5 178113840#6 178113840#7 178113840#8 178113840#9 178113840#10 237092324#0 237092324#2 237092324#3 237092324#5 237092324#6 237092324#8 237092324#10 -1063479420 -281123852#2 -281123852#1 -281123905#1 564713345#1 -281123838#0 316381010#2 316381011#1 -281123790"/>
    </vehicle>
    <vehicle id="4" type="passenger" depart="48.00">
        <route edges="-818309325 -816501941#0 -816422199#20 -816422199#19 -816422199#17 -816422199#16 -816422199#14 -816422199#13 -816422199#12 -816422199#11 -816422199#10 -816422199#9 -816422199#8 -816422199#7 -816422199#6 -816422199#5 -816422199#3 760116766#16 760116766#17 818309319#1 818309319#2 818309320#0 816422155 583487073#13 583487073#14 583487073#15 583487073#17 583487073#17-AddedOffRampEdge 816125618 178113845#0 178113845#1 178113845#2 816125622#2 816125622#3 816125622#5 816125622#6 816125622#7 816125622#8 816125622#9 816125622#10 816125622#12 816125622#13 816125622#14 816125622#15 815138888#0 815138888#2 815138888#3 815138888#4 815138888#5 580217235#0 580217235#2 580217235#3 580217235#4 580217235#5 580217235#6 580217235#7 1442121431#1 178113862#0 178113862#1 178113862#2 237090875#1 237090875#2 237090875#4 237090875#5 700512705#0 700512705#1 700512705#3 700512705#4 700512705#5 700512705#6 700512705#7 700512705#9 700512705#10 700512705#11 700512700#1 700512701#1 178113874#0 178113874#1 178113874#2 178113874#3 178113874#4 280719001#0 -280718972"/>
    </vehicle>
    <vehicle id="5" type="passenger" depart="60.00">
        <route edges="-530514993#2 -530514993#1 -530514993#0 500200892#1 -369047573#9 -369047573#6 -369047573#5 -369047573#4 -369047573#3 -369047573#2 -369047573#1 369047566#4 369047566#1 368752270 368748091#1 368748083 368748083-AddedOffRampEdge 368748079#1 368748075#0 368748075#1 368748075#2 368748075#3 30434522#0 30434522#2 30434522#3 368748088#2 368748088#3 237090875#0 237090875#1 237090875#2 237090875#4 237090875#5 700512705#0 700512705#1 700512705#3 700512705#4 700512705#5 700512705#6 700512705#7 700512705#9 700512705#10 700512705#11 700512705#13 237089822#0"/>
    </vehicle>
    <vehicle id="6" type="passenger" depart="72.00">
        <route edges="-237092324#13 -237092324#12 -237092324#10 -237092324#8 -237092324#6 -237092324#5 -237092324#3 -237092324#2 -237092324#0 -178113840#10 -178113840#9 -178113840#8 -178113840#7 -178113840#6 -178113840#5 -178113840#4 -178113840#3 -178113840#2 -178113840#1 -178113840#0 -178113862#2 -178113862#1 -178113862#0 815157555 815157554#2 815157554#3 815157554#4 815157554#5 815157554#6 815157554#7 815157554#8 815157554#9 815157554#10 815138889#0 815138889#1 815138889#2 815138889#3 815138889#4 815138889#5 815138889#6 815138889#7 815138889#8 815138889#10 -816125622#15 -816125622#14 -823831688#1 178113864#0 178113864#1 178113864#2 178113864#3 178113864#4 178113864#5 178113864#6 178113864#7 -500195554#2"/>
    </vehicle>
    <vehicle id="7" type="passenger" depart="84.00">
        <route edges="366081522#29 -760116765#7 -760116765#5 531213128#0 531213128#1 760116765#4 760116765#5 760116765#7 -366081522#29 -366081522#28 -366081522#27 -366081522#26 -366081522#25 -366081522#24 -366081522#23 -366081522#22 -366081522#21 -366081522#20 -366081522#19 -366081522#18 -366081522#17 -366081522#16 -366081522#15 -366081522#13 -366081522#12 -366081522#11 -366081522#9 -366081522#8 -366081522#7 -366081522#6 -366081522#4 -366081522#3 -366081522#2 -366081522#1 -366081522#0 1318605641#12 1318605641#15 1318605641#15-AddedOffRampEdge 1318605641#17 1318605641#19 1318605641#20 1318605641#21 1318605641#22 365069967#1 1320330620#0 1320330620#0-AddedOffRampEdge 1320330623#1 1320330629#0 1320330629#4 1320330629#6 1320330629#7 1320330629#8 1320330629#10 1320330629#11 1320330629#12 365052465#1 365052465#2 365052465#3 365052465#4 365052465#5 365052465#6 1088784439#0 1088784439#1 365049517#1 365049517#2 365049517#3 365049517#4 365049517#5 365049517#6 365049517#7 365049516#0 365049516#1 365049516#2 1088784437 -281078986#23 -281078986#22 -281078986#21 -281078986#20 -281078986#19 -281078986#18 -281078986#17 -281078986#15 -281078986#13 281078682#0 281078682#1 281078835#1"/>
    </vehicle>
    <vehicle id="8" type="passenger" depart="96.00">
        <route edges="-530515009#3 530515010#0 530515010#1 -368748081#11 -368748081#9 -368748081#8 -368748081#7 -368748081#6 -368748081#5 -368748081#4 -368748081#3 -368748081#2 -368748081#0 -580217240#7 -580217240#6 -580217240#4 -580217240#3 -580217240#1 823831698#0 823831698#2 823831698#3 368748091#5 368748091#6 368748091#1 368748083 368748083-AddedOffRampEdge 368748079#1 368748075#0 368748075#1 368748075#2 368748075#3 178113839#0 178113839#1 178113839#2 178113839#3 178113839#4 178113839#5 178113839#6 178113839#7 178113839#8 178113839#9 178113839#10 178113839#12 178113839#13 178113839#14 178113839#15 178113839#16 178113839#17 178113839#18 367566553#0 367558343#0 367558343#3 367558343#4 178113833#0 367558373#0 367558373#2 367558373#3 367558331#0 367558331#5 -281123743#8 -281123743#7 -281123743#6 -281123743#5 -281123743#4 -281123743#3 -281123743#2 -281123842#1 -281123807 281123908#3"/>
    </vehicle>
    <vehicle id="9" type="passenger" depart="108.00">
        <route edges="531394254#0 531394254#2 531394254#3 531394254#4 -306592446#29 -306592446#28 -306592446#26 -306592446#25 -306592446#24 -306592446#23 -306592446#22 -306592446#21 -306592446#19 -306592446#17 -306592446#16 -306592446#15 -306592446#14 583487065#9 583487065#10 1318349624 1484833867 583487072#0 583487072#2 583487072#4 760116766#0 760116766#1 760116766#2 760116766#3 760116766#5 760116766#6 760116766#7 760116766#7-AddedOffRampEdge 760116766#9 760116766#12-AddedOnRampEdge 760116766#12 760116766#14 760116766#16 760116766#17 818309319#1 818309319#2 233492414#1 233492414#2 233492414#3 233492414#4 233492414#5 -531179103#3 -531179103#2 -531179103#1 -531179103#0 -1125697534"/>
    </vehicle>
    <vehicle id="10" type="passenger" depart="120.00">
        <route edges="531393324#0 -531393331#0 531393331#0 -531393324#0 363114649#9 363114649#10 363114649#11 363114649#12 363114649#13 363114649#14 363114649#15 363114649#16 363114649#17 363114649#18 363114649#21 363114649#22 363114649#23 363114649#24 363114649#25 363114649#26 363114649#27 1318605636#0 1318605636#1 1318605636#2 1318605636#3 1318605636#6 365069967#5 1318605640#0 1318605640#1 1318605640#2 1318605640#3 1318605640#4 1318605640#5 1318605640#6 1318605640#7 1318605640#9 366063798 -223245094#21 -223245094#18 -223245094#16 -223245094#15 -223245094#14 -223245094#10 -223245094#9 -223245094#8 499312623#0 499312623#1 499312623#2 499312623#3 499312623#4 499312623#6 -499315081#6 -499315081#5 -499315081#4 -499315081#3 -499315081#2 814923462#1 -814923462#1 499315081#2"/>
    </vehicle>
    <vehicle id="11" type="passenger" depart="132.00">
        <route edges="-564571312#1 -564571312#0 -1061591753 813864047#1 564571319#21 564571319#23 564571319#24 564571319#25 -585666303#15 -585666303#14 -585666303#13 -585666303#12 -585666303#11 -585666303#10 -585666303#9 -585666303#8 -585666303#7 -585666303#6 -585666303#5 -585666303#4 -585666303#3 -585666303#2 -585666303#0 585666310#8 585666310#10 585666310#11 585666310#13 585666310#15 585666310#17 585666310#18 585666310#19 585666310#21 1354870331#0 1354870331#1 1354870331#2 1354870331#3 1354870331#4 1354870331#5 1354870331#6 1354870331#7 1354870331#8 1354870331#9 1354870331#11 1354870331#12 1354870331#13 1354870331#14 1354870331#15 1354870331#16 1354870331#17 1354870331#18 1354870331#19 1354870331#21 1354870331#22 1354870331#23 1354870331#24 1354870331#25 1354870331#26 1354870331#27 1354870331#28 1209736899#1 1209736899#2 1209736899#3 1209736899#4 -305362431#85 316115163 -316115156#0 1209736900#6 1209736900#7 1209736900#8 1209736900#9 1209736900#10 -280725361#10 498699898#0 498699905#2 -498699906"/>
    </vehicle>
    <vehicle id="12" type="passenger" depart="144.00">
        <route edges="819553297 819203853#5 1354870319#12 1354870319#13 1354870319#14 1354870319#15 1354870319#16 585666257#25 585666257#26 585666257#27 585666257#28 585666257#29 585666257#30 585666257#31 585666257#32 585666257#34 585666257#35 585666257#36 585666257#37 585666303#0 585666303#2 585666303#3 585666303#4 585666303#5 585666303#6 585666303#7 585666303#8 585666303#9 585666303#10 585666303#11 585666303#12 585666303#13 585666303#14 585666303#15 585666303#16 -564571319#24 -564571319#23 -564571319#21 -564571319#20 -564571319#19 -564571319#18 -564571319#16 -564571319#15 -564571319#13 -564571319#12 -564571319#11 -564571319#10 -813864054 -813864039"/>
    </vehicle>
    <vehicle id="13" type="passenger" depart="156.00">
        <route edges="-281123821 -281123742#8 281123779 -996572768 -281123855#0 -308904628#1 -308904622#2 281123863#1 -281123777#1 -281123777#0 -281123896#4 -281123896#3"/>
    </vehicle>
    <vehicle id="14" type="passenger" depart="168.00">
        <route edges="583487067#7 531406486#0 -818307151 -531406471#1 -531406485 -531406484#2 -531406484#0 1318612973#7 1318612973#8 1318612973#9 1318612973#10 1318612973#12 1318612974#0 1318612974#1 1318612974#2 1318612974#5 1318612974#6 1318612974#7 1318612974#8 1318612974#9 1318612974#10 1318605641#0 1318605641#1 1318605641#2 1318605641#3 1318605641#4 1318605641#6 1318605641#7 1318605641#8 1318605641#10 1318605641#11 1318605641#12 1318605641#15 1318605641#15-AddedOffRampEdge 1318612977 815138878#3-AddedOnRampEdge 815138878#3 815138878#4 815138878#5 815138878#6 815138878#8 815138878#9 815138878#10 815138878#11 815138878#12 815138878#13 815138878#14 815138878#15 580217235#0 580217235#2 580217235#3 580217235#4 580217235#5 580217235#6 580217235#7 1442121431#1 178113862#0 178113862#1 178113862#2 178113840#0 178113840#1 178113840#2 178113840#3 178113840#4 178113840#5 178113840#6 178113840#7 178113840#8 178113840#9 178113840#10 281137294#0 281137294#1 281137294#2 178113839#13 178113839#14 178113839#15 178113839#16 178113839#17 1078564325 1078564324#1 281137221#0 281137221#1"/>
    </vehicle>
    <vehicle id="15" type="passenger" depart="180.00">
        <route edges="531393340#2 531393340#3 531393340#4 531393340#5 531393340#6 818722704#4 818722704#5 -306592446#22 -306592446#21 -306592446#19 -306592446#17 -306592446#16 -306592446#15 -306592446#14 583487065#9 583487065#10 583487066#0 583487066#1 583487066#2 583487066#3 1318612974#7 1318612974#8 1318612974#9 1318612974#10 1318605641#0 1318605641#1 1318605641#2 1318605641#3 1318605641#4 1318605641#6 1318605641#7 1318605641#8 1318605641#10 1318605641#11 1318605641#12 -223245094#21 -223245094#18 -223245094#16 -223245094#15 -223245094#14 -223245094#10 -223245094#9 -223245094#8 -223245094#7 -223245094#6 -499314571#1 -499314571#0 499314573#0 531435067 530515047#2"/>
    </vehicle>
    <vehicle id="16" type="passenger" depart="192.00">
        <route edges="280719076#3 -280719058#1 -280719058#0 -280719023#3 -280719023#2 -280719023#1 700512705#9 700512705#10 700512705#11 700512705#13 700512705#14 363114639#0 363114639#1 363114639#2 363114639#3 363114639#5 363114639#6 363114639#7 363114639#8 363114639#9 363114639#10 363114639#11 363114639#12 363114639#13 363114639#14 363114639#15 365049517#3 365049517#4 365049517#5 1209736900#0 1209736900#1 1209736900#2 1209736900#3 1209736900#4 1209736900#5 1209736900#6 1209736900#7 1209736900#8 1209736900#9 1209736900#10 585666257#0 585666257#1 585666257#2 585666257#4 585666257#5 585666257#6 585666257#7 585666257#8 585666257#10 585666257#12 585666257#15 585666257#19 585666257#20 585666257#22 585666257#23 585666285#0 585666285#2 585666285#3 585666285#4 585666285#5 585666285#6 585666285#7 585666285#9 -819796381#22 -819796381#21 -819796381#20 -819796381#19 -819561367 -819198463#4 -819198463#3 -819198463#2 820509866"/>
    </vehicle>
    <vehicle id="17" type="passenger" depart="204.00">
        <route edges="-815396104#3 -815396104#2 -815396104#1 -815396104#0 -815396177#1 -815396177#0 -816441783#7 -816441783#2 -816441783#1 -816441783#0 -366072546#22 -366072546#17 -366072546#14 -366072546#13 -366072546#12 -366072546#11 -366072546#8 -366072546#7 -366072546#6 -366072546#5 -366072546#4 -366072546#3 -366072546#2 -366072546#1 -818417939 366063811#2 366063811#3 366063811#4 366063811#5 366063811#6 366063810#1 366063810#3 1318612974#0 1318612974#1 1318612974#2 1318612974#5 1318612974#6 1318612974#7 1318612974#8 1318612974#9 1318612974#10 1318605641#0 1318605641#1 1318605641#2 1318605641#3 1318605641#4 1318605641#6 1318605641#7 1318605641#8 1318605641#10 1318605641#11 1318605641#12 1318605641#15 1318605641#15-AddedOffRampEdge 1318605641#17 1318605641#19 1318605641#20 1318605641#21 1318605641#22 365069967#1 1320330620#0 1320330620#0-AddedOffRampEdge 1320330623#1 1320330629#0 1320330629#4 1320330629#6 1320330629#7 1320330629#8 1320330629#10 1320330629#11 1320330629#12 365052465#1 365052465#2 365052465#3 365052465#4 365052465#5 365052465#6 1088784439#0 1088784439#1 365049517#1 365049517#2 365049517#3 365049517#4 365049517#5 365049517#6 365049517#7 365049516#0 -281078780 281078666#2 821458895 281078907#2 281078960#4 281078960#5"/>
    </vehicle>
    <vehicle id="18" type="passenger" depart="216.00">
        <route edges="531421423#0 531179129#0 531179129#1 531179129#2 531179129#3 531179127#2 531179176#0 531179176#1 819724877 -531179174#1 368752251#5 368752251#6 368752251#8 368752251#10 368752251#11 823831690#0 823831690#1 823831690#2 823831690#3 823831690#4 823831690#5 823831690#6 823831690#7 823831690#8 823831690#9 823831690#10 823831689#0 823831689#1 823831689#2 823831689#3 823831689#4 823831689#5 823831688#1 816125622#14 816125622#15 815138888#0 815138888#2 815138888#3 815138888#4 815138888#5 580217235#0 580217235#2 580217235#3 580217235#4 580217235#5 580217235#6 580217235#7 1442121431#1 178113862#0 178113862#1 178113862#2 237090875#1 237090875#2 237090875#4 237090875#5 700512705#0 700512705#1 700512705#3 700512705#4 700512705#5 700512705#6 700512705#7 700512705#9 700512705#10 700512705#11 700512705#13 700512705#14 363114639#0 363114639#1 363114639#2 363114639#3 363114639#5 363114639#6 363114639#7 363114639#8 363114639#9 363114639#10 363114639#11 363114639#12 363114639#13 363114639#14 363114639#15 365049517#3 365044825#0 365044825#1 365044825#2 365044825#3 365044825#4 365044825#5 305362431#0 305362431#1 305362431#2 305362431#3 305362431#5 305362431#6 305362431#7 305362431#9 305362431#10 305362431#11"/>
    </vehicle>
    <vehicle id="19" type="passenger" depart="228.00">
        <route edges="760116766#20 760116766#21 817146472#0 817146472#2 817146472#3 -816422209#3 -816422209#2 -816422209#1 -816422209#0 -816422156#2 -816422156#1 -816422193#1 -816422167#3 -816422167#2 -816422167#1 -816422167#0 583487073#12 583487073#13 583487073#14 583487073#15 583487073#17 583487073#17-AddedOffRampEdge 816125618 178113845#0 178113845#1 178113845#2 816125622#2 816125622#3 816125622#5 816125622#6 816125622#7 816125622#8 816125622#9 816125622#10 816125622#12 816125622#13 816125622#14 816125622#15 815138888#0 815138888#2 815138888#3 815138888#4 815138888#5 580217235#0 580217235#2 580217235#3 580217235#4 580217235#5 580217235#6 580217235#7 1442121431#1 178113862#0 178113862#1 178113862#2 178113840#0 178113840#1 178113840#2 178113840#3 178113840#4 178113840#5 178113840#6 178113840#7 178113840#8 178113840#9 178113840#10 237092324#0 237092324#2 237092324#3 237092324#5 237092324#6 237092324#8 237092324#10 -1063479420 -281123849#2 -281123849#1 281123813#2"/>
    </vehicle>
    <vehicle id="20" type="passenger" depart="240.00">
        <route edges="500022784#2 -531421412 -530524775#2 530524794#1 -530524774#2 -530524774#1 823831690#6 823831690#7 823831690#8 823831690#9 823831690#10 823831689#0 823831689#1 823831689#2 823831689#3 823831689#4 823831689#5 823831688#1 816125622#14 816125622#15 815138888#0 815138888#2 815138888#3 815138888#4 815138888#5 580217235#0 580217235#2 580217235#3 580217235#4 580217235#5 580217235#6 580217235#7 1442121431#1 178113862#0 178113862#1 178113862#2 237090875#1 237090875#2 237090875#4 237090875#5 700512705#0 700512705#1 700512705#3 700512705#4 700512705#5 700512705#6 700512705#7 700512705#9 700512705#10 700512705#11 700512705#13 700512705#14 363114639#0 363114639#1 363114639#2 363114639#3 363114639#5 363114639#6 363114639#7 363114639#8 363114639#9 363114639#10 363114639#11 363114639#12 363114639#13 363114639#14 363114639#15 365049517#3 365044825#0 365044825#1 365044825#2 365044825#3 365044825#4 365044825#5 305362431#0 305362431#1 305362431#2 305362431#3 305362431#5 996568814#1 996568814#2 -280725355#0"/>
    </vehicle>
    <vehicle id="21" type="passenger" depart="252.00">
        <route edges="-530524777#13 1067563305 -500022789#4 -500022789#3 -819724857#2 -819724857#1 -819724857#0 530524797#12 530524797#13 530524797#14 530524798#0 530524798#1 530524798#2 823831666#0 823831666#1 823831665 818309324 583487073#17 583487073#17-AddedOffRampEdge 583487073#18 583487073#21-AddedOnRampEdge 583487073#21 583487073#24 583487073#25 583487073#27 583487073#28 583487073#29 583487073#30 583487073#31 583487073#32 583487073#33 583487073#35 760116764#0 760116764#1 760116764#2 760116764#3 760116764#4 760116764#5 1484833865 1318349621 583487064#0 583487064#1 583487064#2 583487064#3 306592446#14 306592446#15 306592446#16 306592446#17 306592446#19 306592446#21 306592446#22 -818722704#5 -818722704#4 -531393340#6 -531393340#5 -531393340#4 -531393340#3"/>
    </vehicle>
    <vehicle id="22" type="passenger" depart="264.00">
        <route edges="-281098510#0 281098436#2 281098436#3 281098436#5 281098436#6 281098436#7 281098436#8 683321073 -281098530#2 -281098530#1 -281098530#0 363114639#13 363114639#14 363114639#15 365049517#3 365049517#4 365049517#5 365049517#6 365049517#7 365049516#0 365049516#1 365049516#2 1088784437 1088784435#1 1088784435#2 1088784435#3 1088784435#4 1088784435#5 1088784435#6 1088784435#8 1088784435#9 1088784435#10 1088784435#13-AddedOnRampEdge 1088784435#13 1088784435#15 1320330621 1320330619#2 365069967#3 365069967#4 365069967#5 1318605640#0 1318605640#1 1318605640#2 1318605640#3 1318605640#4 1318605640#5 1318605640#6 1318605640#7 -499157275#10 -499157275#9 -499157275#8 -499157275#7 -499157275#6 -531179024 -531179022#0"/>
    </vehicle>
    <vehicle id="23" type="passenger" depart="276.00">
        <route edges="-281123894#2 -281123894#1 -281123894#0 -823812178#4 -823812178#3 -823812178#2 -823812178#0 821458789#1 821458789#2 821458789#4 821458789#5 821458789#6 821458789#7 587993265#0 587993265#1 587993265#2 587993265#2-AddedOffRampEdge 587993265#3 237091090#0 700512700#1 700512701#1 178113874#0 178113874#1 178113874#2 178113874#3 178113874#4 1320340898#0 1088784435#8 1088784435#9 1088784435#10 1088784435#13-AddedOnRampEdge 1088784435#13 1088784435#15 1320330621 1320330619#2 365069967#3 365069967#4 365069967#5 1318605640#0 1318605640#1 1318605640#2 1318605640#3 1318605640#4 1318605640#5 1318605640#6 1318605640#7 1318605640#9 1318605640#10 1318605640#11 1318605640#12 1318605640#13 1318605640#14 1318605640#15 1318605640#16 1318605640#17 1318605640#18 1318605640#19 1318605640#20 1318612973#0 1318612973#5 1318612973#6 1318612973#7 1318612973#8 1318612973#9 1318612973#10 1318612973#12 -366063810#3 -531223299#7 -531223299#6 -531223299#5 -531223301#1 -531223301#0"/>
    </vehicle>
    <vehicle id="24" type="passenger" depart="288.00">
        <route edges="316103870#0 316103870#1 316103870#2 316103870#3 -281123760 365041853#1 316103861#2 316103861#3 1320340904#1 1320340904#2 1320340904#4 1320340904#5 1320340904#6 1320340904#7 1320340902 1320340902-AddedOffRampEdge 365052473#1 1318605633#1 1318605633#2 1318605633#3 365072373 1318612973#0 1318612973#5 1318612973#6 1318612973#7 583487066#5 583487066#6 583487066#7 583487066#8 583487066#9 1484833867 583487072#0 583487072#2 583487072#4 760116766#0 760116766#1 760116766#2 760116766#3 760116766#5 -815396232#5 -815396232#4 -815396232#3 -815396232#2 -815396232#1 -815396232#0 -815396163#7 -815396163#6 815396132#0 815396132#1 -815396137#5 -815396137#4 -815396137#3 -815396137#2"/>
    </vehicle>
    <vehicle id="25" type="passenger" depart="300.00">
        <route edges="-814126825#7 -814126825#6 -585666291#3 -585666291#2 -585666291#1 -585666291#0 585666310#17 585666310#18 585666310#19 585666310#21 1354870331#0 1354870331#1 1354870331#2 1354870331#3 1354870331#4 1354870331#5 1354870331#6 1354870331#7 1354870331#8 1354870331#9 1354870331#11 1354870331#12 1354870331#13 1354870331#14 1354870331#15 1354870331#16 1354870331#17 1354870331#18 1354870331#19 1354870331#21 1354870331#22 1354870331#23 1354870331#24 1354870331#25 1354870331#26 1354870331#27 1354870331#28 1209736899#1 1209736899#2 1209736899#3 1209736899#4 1209736899#5 1209736899#6 585668915#0 585668915#1 585668915#2 585668915#3 585668915#4 365049517#7 365049517#8 365049517#1 587993268#0 587993268#1 587993268#2 587993268#3 587993268#4 587993268#5 587993268#6 587993268#7 587993268#8 587993268#9 587993268#10 587993268#11 587993268#12 587993268#13 587993268#14 587993268#15 587993268#16 587993268#17 237091090#0 237091090#2 237091090#3 237091090#5 237091090#6 237091090#7 237091090#8 237091090#9 237091090#10 237091090#11 237091090#13 237091090#14 82531803#0 82531803#1 82531803#2 82531803#4 82531803#5 82531804#0 82531804#1 815157555 815157554#2 815157554#3 815157554#4 815157554#5 815157554#6 815157554#7 815157554#8 815157554#9 815157554#10 580217234#0 580217234#1 580217234#2 580217234#3 580217234#4 580217234#5 580217234#5-AddedOffRampEdge 580217241 368748081#2 368748081#3 368748081#4 368748081#5 368748081#6 368748081#7 368748081#8 368748081#9 368748081#11 368748081#13 -531179071 -530515014#0"/>
    </vehicle>
    <vehicle id="26" type="passenger" depart="312.00">
        <route edges="-531213060 531179157#2 531179157#3 -531213062 820914112#0 820914114#0 820914114#2 820914113 583487073#3 583487073#5 583487073#6 583487073#7 583487073#8 583487073#8-AddedOffRampEdge 583487073#10 816422167#0 816422167#1 816422167#2 816422167#3 816422167#4 816422167#5 816422167#6 816422167#7 816422167#8 816422167#9 -816422190 816422197#0 1067568057 816422199#4 816422199#6 816422199#7 816422199#8 816422199#9 816422199#10 816422199#11 816422199#12 816422199#13 816422199#14 816422199#15 816422199#17 816422199#18 -816501957 816748968#2 816748968#3 816748974#0 816748975"/>
    </vehicle>
    <vehicle id="27" type="passenger" depart="324.00">
        <route edges="366072546#9 -531223280 -531223239#0 -447957308#4 -447957308#3 -447957308#2 -447957308#0 447957047#1 447957313#0 447957313#1 447957314#0 447957314#1 -531223293#1 -531406473#1 -531406473#0 1318612974#5 1318612974#6 1318612974#7 1318612974#8 1318612974#9 1318612974#10 1318605641#0 1318605641#1 1318605641#2 1318605641#3 1318605641#4 1318605641#6 1318605641#7 1318605641#8 1318605641#10 1318605641#11 1318605641#12 1318605641#15 1318605641#15-AddedOffRampEdge 1318612977 815138878#3-AddedOnRampEdge 815138878#3 815138878#4 815138878#5 815138878#6 815138878#8 815138878#9 815138878#10 815138878#11 815138878#12 815138878#13 815138878#14 815138878#15 580217235#0 580217235#2 580217235#3 580217235#4 580217235#5 580217235#6 580217235#7 1442121431#1 178113862#0 178113862#1 178113862#2 178113840#0 178113840#1 178113840#2 178113840#3 178113840#4 178113840#5 178113840#6 178113840#7 178113840#8 178113840#9 178113840#10 281137294#0 281137294#1 281137294#2 -281137305#4 -281137305#3 -281137305#2 -281137305#1 281137265"/>
    </vehicle>
    <vehicle id="28" type="passenger" depart="336.00">
        <route edges="-498700259 -498700251#3 -498700251#2 -498700251#1 -498700251#0 -498699972 281137198#40 281137198#42 281137198#43 -280725335#10 -280725335#9 -280725335#7 -280725335#6 -280725335#5 -280725335#3 -280725335#1 -280725335#0 305362431#80 305362431#81 305362431#82 305362431#83 305362431#84 305362431#85 1209736899#5 1209736899#6 585668915#0 585668915#1 585668915#2 585668915#3 585668915#4 365049517#7 365049517#8 365049517#1 587993268#0 587993268#1 587993268#2 587993268#3 587993268#4 587993268#5 587993268#6 587993268#7 587993268#8 587993268#9 587993268#10 587993268#11 587993268#12 587993268#13 587993268#14 587993268#15 587993268#16 587993268#17 237091090#0 237091090#2 237091090#3 237091090#5 237091090#6 237091090#7 237091090#8 237091090#9 237091090#10 237091090#11 237091090#13 237091090#14 82531803#0 82531803#1 82531803#2 82531803#4 82531803#5 82531804#0 82531804#1 815157555 815157554#2 815157554#3 815157554#4 815157554#5 815157554#6 815157554#7 815157554#8 815157554#9 815157554#10 815138889#0 815138889#1 815138889#2 815138889#3 815138889#4 815138889#5 815138889#6 815138889#7 815138889#8 815138889#10 -816125622#15 -816125622#14 -816125622#13 -816125622#12 -816125622#10 -816125622#9 -816125622#8 -816125622#7 1123319653 530515041#1"/>
    </vehicle>
    <vehicle id="29" type="passenger" depart="348.00">