<?xml version="1.0" encoding="UTF-8"?>
<configuration>
  <input>
    <net-file value="map.net.xml"/>
    <route-files value="map.rou.xml"/>
  </input>
  <time>
    <begin value="0"/>
    <end value="3600"/>
  </time>
  <processing>
    <ignore-route-errors value="true"/>
    <time-to-teleport value="300"/>
    <waiting-time-memory value="1000"/>
  </processing>
  <report>
    <no-step-log value="true"/>
    <no-warnings value="true"/>
  </report>
</configuration>
